McPAT (version 1.0 of Aug, 2013) is computing the target processor...
 

McPAT (version 1.0 of Aug, 2013) results  (current print level is 5)
*****************************************************************************************
  Technology 45 nm
  Using Long Channel Devices When Appropriate
  Interconnect metal projection= conservative interconnect technology projection
  Core clock Rate(MHz) 322

*****************************************************************************************
Processor: 
  Area = 239.391 mm^2
  Peak Power = 7.38577 W
  Total Leakage = 6.2903 W
  Peak Dynamic = 1.09547 W
  Subthreshold Leakage = 0.617002 W
  Gate Leakage = 5.6733 W
  Runtime Dynamic = 0.203535 W

  Total Cores: 4 cores 
  Device Type= ITRS low operating power device type
    Area = 237.93 mm^2
    Peak Dynamic = 1.05583 W
    Subthreshold Leakage = 0.615351 W
    Gate Leakage = 5.64889 W
    Runtime Dynamic = 0.183968 W

  Total First Level Directory: 
  Device Type= ITRS low operating power device type
    Area = 1.354 mm^2
    Peak Dynamic = 0.0196125 W
    Subthreshold Leakage = 0.00147625 W
    Gate Leakage = 0.0221641 W
    Runtime Dynamic = 0.0123218 W

  Total NoCs (Network/Bus): 
  Device Type= ITRS low operating power device type
    Area = 0.106691 mm^2
    Peak Dynamic = 0.0200326 W
    Subthreshold Leakage = 0.000174362 W
    Gate Leakage = 0.0022494 W
    Runtime Dynamic = 0.00724569 W

*****************************************************************************************
Core:
      Area = 59.4825 mm^2
      Peak Dynamic = 0.263957 W
      Subthreshold Leakage = 0.153838 W
      Gate Leakage = 1.41222 W
      Runtime Dynamic = 0.183968 W

      Instruction Fetch Unit:
        Area = 27.7482 mm^2
        Peak Dynamic = 0.13568 W
        Subthreshold Leakage = 0.0757954 W
        Gate Leakage = 0.691045 W
        Runtime Dynamic = 0.138758 W

          Instruction Cache:
            Area = 27.5057 mm^2
            Peak Dynamic = 0.124248 W
            Subthreshold Leakage = 0.0755741 W
            Gate Leakage = 0.68975 W
            Runtime Dynamic = 0.129959 W

          Branch Target Buffer:
            Area = 0.156151 mm^2
            Peak Dynamic = 0.00235801 W
            Subthreshold Leakage = 0.000115318 W
            Gate Leakage = 0.000432367 W
            Runtime Dynamic = 0.000383742 W

          Branch Predictor:
            Area = 0.082116 mm^2
            Peak Dynamic = 0.00183589 W
            Subthreshold Leakage = 8.93378e-05 W
            Gate Leakage = 0.00065791 W
            Runtime Dynamic = 0.000415003 W

              Global Predictor:
                Area = 0.0396052 mm^2
                Peak Dynamic = 0.000842042 W
                Subthreshold Leakage = 4.37676e-05 W
                Gate Leakage = 0.000317062 W
                Runtime Dynamic = 0.000200934 W

              Local Predictor:
              L1_Local Predictor:
                Area = 0.000870794 mm^2
                Peak Dynamic = 4.90117e-05 W
                Subthreshold Leakage = 9.63401e-07 W
                Gate Leakage = 1.59294e-05 W
                Runtime Dynamic = 1.31346e-05 W

              L2_Local Predictor:
                Area = 0.000992973 mm^2
                Peak Dynamic = 3.7665e-05 W
                Subthreshold Leakage = 1.09224e-06 W
                Gate Leakage = 1.74117e-05 W
                Runtime Dynamic = 9.8755e-06 W

              Chooser:
                Area = 0.0396052 mm^2
                Peak Dynamic = 0.000842042 W
                Subthreshold Leakage = 4.37676e-05 W
                Gate Leakage = 0.000317062 W
                Runtime Dynamic = 0.000200934 W

              RAS:
                Area = 0.00104175 mm^2
                Peak Dynamic = 0.000102791 W
                Subthreshold Leakage = 8.39153e-07 W
                Gate Leakage = 7.8563e-06 W
                Runtime Dynamic = 1.00836e-10 W

          Instruction Buffer:
            Area = 0.000792161 mm^2
            Peak Dynamic = 0.000338574 W
            Subthreshold Leakage = 1.25923e-06 W
            Gate Leakage = 1.27427e-05 W
            Runtime Dynamic = 0.000338574 W

          Instruction Decoder:
            Area = 0.00251311 mm^2
            Peak Dynamic = 0.00667875 W
            Subthreshold Leakage = 1.37156e-05 W
            Gate Leakage = 0.000134214 W
            Runtime Dynamic = 0.00667875 W

      Load Store Unit:
        Area = 30.2702 mm^2
        Peak Dynamic = 0.107841 W
        Subthreshold Leakage = 0.0755901 W
        Gate Leakage = 0.689992 W
        Runtime Dynamic = 0.0410747 W

          Data Cache:
            Area = 27.5057 mm^2
            Peak Dynamic = 0.105405 W
            Subthreshold Leakage = 0.0755741 W
            Gate Leakage = 0.68975 W
            Runtime Dynamic = 0.0382487 W

          Load/Store Queue:
            Area = 0.0118654 mm^2
            Peak Dynamic = 0.00226197 W
            Subthreshold Leakage = 1.42894e-05 W
            Gate Leakage = 0.000183738 W
            Runtime Dynamic = 0.0018437 W

      Memory Management Unit:
        Area = 0.0284487 mm^2
        Peak Dynamic = 0.00263633 W
        Subthreshold Leakage = 3.29646e-05 W
        Gate Leakage = 0.000429151 W
        Runtime Dynamic = 0.00286396 W

          Itlb:
            Area = 0.0137678 mm^2
            Peak Dynamic = 0.00135634 W
            Subthreshold Leakage = 1.56538e-05 W
            Gate Leakage = 0.00018528 W
            Runtime Dynamic = 0.00150705 W

          Dtlb:
            Area = 0.0137678 mm^2
            Peak Dynamic = 0.00107 W
            Subthreshold Leakage = 1.56538e-05 W
            Gate Leakage = 0.00018528 W
            Runtime Dynamic = 0.000374555 W

      Execution Unit:
        Area = 1.40115 mm^2
        Peak Dynamic = 0.0177992 W
        Subthreshold Leakage = 0.00233481 W
        Gate Leakage = 0.0296812 W
        Runtime Dynamic = 0.00127129 W

          Register Files:
            Area = 0.010128 mm^2
            Peak Dynamic = 0.00144685 W
            Subthreshold Leakage = 5.01092e-06 W
            Gate Leakage = 5.44888e-05 W
            Runtime Dynamic = 1.85003e-05 W

              Integer RF:
                Area = 0.00506401 mm^2
                Peak Dynamic = 0.00144685 W
                Subthreshold Leakage = 2.50546e-06 W
                Gate Leakage = 2.72444e-05 W
                Runtime Dynamic = 1.58574e-05 W

              Floating Point RF:
                Area = 0.00506401 mm^2
                Peak Dynamic = 0 W
                Subthreshold Leakage = 2.50546e-06 W
                Gate Leakage = 2.72444e-05 W
                Runtime Dynamic = 2.6429e-06 W

          Instruction Scheduler:
            Area = 0 mm^2
            Peak Dynamic = 0 W
            Subthreshold Leakage = 0 W
            Gate Leakage = 0 W
            Runtime Dynamic = 0 W

          Integer ALUs (Count: 1 ):
            Area = 0.0392392 mm^2
            Peak Dynamic = 0.00193573 W
            Subthreshold Leakage = 0.00019262 W
            Gate Leakage = 0.00244634 W
            Runtime Dynamic = 4.62273e-05 W

          Floating Point Units (FPUs) (Count: 1 ):
            Area = 1.22925 mm^2
            Peak Dynamic = 0 W
            Subthreshold Leakage = 0.00150856 W
            Gate Leakage = 0.0191592 W
            Runtime Dynamic = 4.62273e-05 W

          Complex ALUs (Mul/Div) (Count: 1 ):
            Area = 0.117718 mm^2
            Peak Dynamic = 0.0041771 W
            Subthreshold Leakage = 0.000577861 W
            Gate Leakage = 0.00733901 W
            Runtime Dynamic = 6.16364e-05 W

          Results Broadcast Bus:
            Area Overhead = 0.00390379 mm^2
            Peak Dynamic = 0.0100528 W
            Subthreshold Leakage = 4.91049e-05 W
            Gate Leakage = 0.000623648 W
            Runtime Dynamic = 0.000116342 W

*****************************************************************************************
First Level Directory
      Area = 0.338501 mm^2
      Peak Dynamic = 0.00490312 W
      Subthreshold Leakage = 0.000369062 W
      Gate Leakage = 0.00554103 W
      Runtime Dynamic = 0.0123218 W

*****************************************************************************************
BUSES
      Area = 0.106691 mm^2
      Peak Dynamic = 0.0200326 W
      Subthreshold Leakage = 0.000174362 W
      Gate Leakage = 0.0022494 W
      Runtime Dynamic = 0.00724569 W

      Bus: 
        Area = 0.0266728 mm^2
        Peak Dynamic = 0.00500815 W
        Subthreshold Leakage = 4.35904e-05 W
        Gate Leakage = 0.000562351 W
        Runtime Dynamic = 0.00724569 W

*****************************************************************************************
