McPAT (version 1.0 of Aug, 2013) is computing the target processor...
 

McPAT (version 1.0 of Aug, 2013) results  (current print level is 5)
*****************************************************************************************
  Technology 45 nm
  Using Long Channel Devices When Appropriate
  Interconnect metal projection= conservative interconnect technology projection
  Core clock Rate(MHz) 322

*****************************************************************************************
Processor: 
  Area = 136.584 mm^2
  Peak Power = 4.61146 W
  Total Leakage = 3.46885 W
  Peak Dynamic = 1.14261 W
  Subthreshold Leakage = 0.331602 W
  Gate Leakage = 3.13725 W
  Runtime Dynamic = 0.10351 W

  Total Cores: 8 cores 
  Device Type= ITRS low operating power device type
    Area = 133.755 mm^2
    Peak Dynamic = 1.08069 W
    Subthreshold Leakage = 0.328452 W
    Gate Leakage = 3.09037 W
    Runtime Dynamic = 0.0876105 W

  Total First Level Directory: 
  Device Type= ITRS low operating power device type
    Area = 2.70801 mm^2
    Peak Dynamic = 0.039225 W
    Subthreshold Leakage = 0.0029525 W
    Gate Leakage = 0.0443282 W
    Runtime Dynamic = 0.0122666 W

  Total NoCs (Network/Bus): 
  Device Type= ITRS low operating power device type
    Area = 0.120857 mm^2
    Peak Dynamic = 0.0226923 W
    Subthreshold Leakage = 0.000197512 W
    Gate Leakage = 0.00254806 W
    Runtime Dynamic = 0.00363278 W

*****************************************************************************************
Core:
      Area = 16.7194 mm^2
      Peak Dynamic = 0.135087 W
      Subthreshold Leakage = 0.0410565 W
      Gate Leakage = 0.386296 W
      Runtime Dynamic = 0.0876105 W

      Instruction Fetch Unit:
        Area = 7.3848 mm^2
        Peak Dynamic = 0.0676751 W
        Subthreshold Leakage = 0.0194047 W
        Gate Leakage = 0.178083 W
        Runtime Dynamic = 0.0627952 W

          Instruction Cache:
            Area = 7.14231 mm^2
            Peak Dynamic = 0.0562429 W
            Subthreshold Leakage = 0.0191835 W
            Gate Leakage = 0.176787 W
            Runtime Dynamic = 0.0530191 W

          Branch Target Buffer:
            Area = 0.156151 mm^2
            Peak Dynamic = 0.00235801 W
            Subthreshold Leakage = 0.000115318 W
            Gate Leakage = 0.000432367 W
            Runtime Dynamic = 0.000381528 W

          Branch Predictor:
            Area = 0.082116 mm^2
            Peak Dynamic = 0.00183589 W
            Subthreshold Leakage = 8.93378e-05 W
            Gate Leakage = 0.00065791 W
            Runtime Dynamic = 0.00041261 W

              Global Predictor:
                Area = 0.0396052 mm^2
                Peak Dynamic = 0.000842042 W
                Subthreshold Leakage = 4.37676e-05 W
                Gate Leakage = 0.000317062 W
                Runtime Dynamic = 0.000199776 W

              Local Predictor:
              L1_Local Predictor:
                Area = 0.000870794 mm^2
                Peak Dynamic = 4.90117e-05 W
                Subthreshold Leakage = 9.63401e-07 W
                Gate Leakage = 1.59294e-05 W
                Runtime Dynamic = 1.30588e-05 W

              L2_Local Predictor:
                Area = 0.000992973 mm^2
                Peak Dynamic = 3.7665e-05 W
                Subthreshold Leakage = 1.09224e-06 W
                Gate Leakage = 1.74117e-05 W
                Runtime Dynamic = 9.81855e-06 W

              Chooser:
                Area = 0.0396052 mm^2
                Peak Dynamic = 0.000842042 W
                Subthreshold Leakage = 4.37676e-05 W
                Gate Leakage = 0.000317062 W
                Runtime Dynamic = 0.000199776 W

              RAS:
                Area = 0.00104175 mm^2
                Peak Dynamic = 0.000102791 W
                Subthreshold Leakage = 8.39153e-07 W
                Gate Leakage = 7.8563e-06 W
                Runtime Dynamic = 4.8983e-11 W

          Instruction Buffer:
            Area = 0.000792161 mm^2
            Peak Dynamic = 0.000338574 W
            Subthreshold Leakage = 1.25923e-06 W
            Gate Leakage = 1.27427e-05 W
            Runtime Dynamic = 0.000338574 W

          Instruction Decoder:
            Area = 0.00251311 mm^2
            Peak Dynamic = 0.00667875 W
            Subthreshold Leakage = 1.37156e-05 W
            Gate Leakage = 0.000134214 W
            Runtime Dynamic = 0.00667875 W

      Load Store Unit:
        Area = 7.87051 mm^2
        Peak Dynamic = 0.0469763 W
        Subthreshold Leakage = 0.0191994 W
        Gate Leakage = 0.177029 W
        Runtime Dynamic = 0.0188656 W

          Data Cache:
            Area = 7.14231 mm^2
            Peak Dynamic = 0.0445399 W
            Subthreshold Leakage = 0.0191835 W
            Gate Leakage = 0.176787 W
            Runtime Dynamic = 0.0150648 W

          Load/Store Queue:
            Area = 0.0118654 mm^2
            Peak Dynamic = 0.00226197 W
            Subthreshold Leakage = 1.42894e-05 W
            Gate Leakage = 0.000183738 W
            Runtime Dynamic = 0.00183607 W

      Memory Management Unit:
        Area = 0.0284487 mm^2
        Peak Dynamic = 0.00263633 W
        Subthreshold Leakage = 3.29646e-05 W
        Gate Leakage = 0.000429151 W
        Runtime Dynamic = 0.00384463 W

          Itlb:
            Area = 0.0137678 mm^2
            Peak Dynamic = 0.00135634 W
            Subthreshold Leakage = 1.56538e-05 W
            Gate Leakage = 0.00018528 W
            Runtime Dynamic = 0.00150705 W

          Dtlb:
            Area = 0.0137678 mm^2
            Peak Dynamic = 0.00107 W
            Subthreshold Leakage = 1.56538e-05 W
            Gate Leakage = 0.00018528 W
            Runtime Dynamic = 0.000372865 W

      Execution Unit:
        Area = 1.40115 mm^2
        Peak Dynamic = 0.0177992 W
        Subthreshold Leakage = 0.00233481 W
        Gate Leakage = 0.0296812 W
        Runtime Dynamic = 0.00210507 W

          Register Files:
            Area = 0.010128 mm^2
            Peak Dynamic = 0.00144685 W
            Subthreshold Leakage = 5.01092e-06 W
            Gate Leakage = 5.44888e-05 W
            Runtime Dynamic = 8.98688e-06 W

              Integer RF:
                Area = 0.00506401 mm^2
                Peak Dynamic = 0.00144685 W
                Subthreshold Leakage = 2.50546e-06 W
                Gate Leakage = 2.72444e-05 W
                Runtime Dynamic = 7.70304e-06 W

              Floating Point RF:
                Area = 0.00506401 mm^2
                Peak Dynamic = 0 W
                Subthreshold Leakage = 2.50546e-06 W
                Gate Leakage = 2.72444e-05 W
                Runtime Dynamic = 1.28384e-06 W

          Instruction Scheduler:
            Area = 0 mm^2
            Peak Dynamic = 0 W
            Subthreshold Leakage = 0 W
            Gate Leakage = 0 W
            Runtime Dynamic = 0 W

          Integer ALUs (Count: 1 ):
            Area = 0.0392392 mm^2
            Peak Dynamic = 0.00193573 W
            Subthreshold Leakage = 0.00019262 W
            Gate Leakage = 0.00244634 W
            Runtime Dynamic = 2.24558e-05 W

          Floating Point Units (FPUs) (Count: 1 ):
            Area = 1.22925 mm^2
            Peak Dynamic = 0 W
            Subthreshold Leakage = 0.00150856 W
            Gate Leakage = 0.0191592 W
            Runtime Dynamic = 2.24558e-05 W

          Complex ALUs (Mul/Div) (Count: 1 ):
            Area = 0.117718 mm^2
            Peak Dynamic = 0.0041771 W
            Subthreshold Leakage = 0.000577861 W
            Gate Leakage = 0.00733901 W
            Runtime Dynamic = 2.99411e-05 W

          Results Broadcast Bus:
            Area Overhead = 0.00390379 mm^2
            Peak Dynamic = 0.0100528 W
            Subthreshold Leakage = 4.91049e-05 W
            Gate Leakage = 0.000623648 W
            Runtime Dynamic = 5.65157e-05 W

*****************************************************************************************
First Level Directory
      Area = 0.338501 mm^2
      Peak Dynamic = 0.00490312 W
      Subthreshold Leakage = 0.000369062 W
      Gate Leakage = 0.00554103 W
      Runtime Dynamic = 0.0122666 W

*****************************************************************************************
BUSES
      Area = 0.120857 mm^2
      Peak Dynamic = 0.0226923 W
      Subthreshold Leakage = 0.000197512 W
      Gate Leakage = 0.00254806 W
      Runtime Dynamic = 0.00363278 W

      Bus: 
        Area = 0.0134285 mm^2
        Peak Dynamic = 0.00252137 W
        Subthreshold Leakage = 2.19457e-05 W
        Gate Leakage = 0.000283117 W
        Runtime Dynamic = 0.00363278 W

*****************************************************************************************
